data_FTES
 
_cell_length_a                    7.1044
_cell_length_b                    7.1739
_cell_length_c                    16.6481 
_cell_angle_alpha                 98.214
_cell_angle_beta                  92.598
_cell_angle_gamma                 107.2831
_cell_volume                      798.17
 
loop_ 
 _atom_site_label 
 _atom_site_type_symbol 
 _atom_site_fract_x 
 _atom_site_fract_y 
 _atom_site_fract_z 
Si1	Si	0.2566	0.8618	0.17565	   
C1	C	0.0652	0.9568	0.42329	   
C2	C	-0.1316	0.8682	0.43651	   
C3	C	-0.2662	0.7314	0.37473	   
C4	C	-0.4562	0.6501	0.38897	   
S5	S	-0.6402	0.4776	0.32086	   
C5	C	-0.8057	0.4876	0.3935	   
F1	F	-0.9941	0.3736	0.3711	   
C6	C	-0.7308	0.601	0.4641	   
C7	C	-0.5252	0.7007	0.46484	   
C8	C	-0.3995	0.828	0.52565	   
C9	C	-0.1993	0.9126	0.51389	   
c1	C	0.1299	0.9186	0.34495	   
c2	C	0.1816	0.89	0.2787	   
c3	C	0.5242	0.8862	0.1813	   
c4	C	0.6566	1.0719	0.2323	   
c5	C	0.1134	0.6104	0.1214	   
c6	C	-0.1015	0.5534	0.1251	   
c7	C	0.2029	1.0591	0.128	   
c8	C	0.2703	1.0795	0.0445	   
Si1m	Si	-0.2566	1.1382	0.82435	   
C1m	C	-0.0652	1.0432	0.57671	   
C2m	C	0.1316	1.1318	0.56349	   
C3m	C	0.2662	1.2686	0.62527	   
C4m	C	0.4562	1.3499	0.61103	   
S5m	S	0.6402	1.5224	0.67914	   
C5m	C	0.8057	1.5124	0.6065	   
F1m	F	0.9941	1.6264	0.6289	   
C6m	C	0.7308	1.399	0.5359	   
C7m	C	0.5252	1.2993	0.53516	   
C8m	C	0.3995	1.172	0.47435	   
C9m	C	0.1993	1.0874	0.48611	   
c1m	C	-0.1299	1.0814	0.65505	   
c2m	C	-0.1816	1.11	0.7213	   
c3m	C	-0.5242	1.1138	0.8187	   
c4m	C	-0.6566	0.9281	0.7677	   
c5m	C	-0.1134	1.3896	0.8786	   
c6m	C	0.1015	1.4466	0.8749	   
c7m	C	-0.2029	0.9409	0.872	   
c8m	C	-0.2703	0.9205	0.9555	 