data_TIPS
 
_cell_length_a                    7.565
_cell_length_b                    7.75
_cell_length_c                    16.835
_cell_angle_alpha                 89.15 
_cell_angle_beta                  78.42 
_cell_angle_gamma                 83.7735 
_cell_volume                      960.9

loop_ 
 _atom_site_label 
 _atom_site_type_symbol 
 _atom_site_fract_x 
 _atom_site_fract_y 
 _atom_site_fract_z 
Si	Si	0.2477	0.7092	0.82285	   
C1	C	0.4466	0.9381	0.58003	   
C2	C	0.3199	1.0454	0.54465	   
C3	C	0.1407	1.0922	0.58608	   
C4	C	0.0142	1.1931	0.55141	   
C5	C	-0.1682	1.2397	0.59352	   
C6	C	-0.2889	1.3374	0.55775	   
C7	C	-0.2372	1.3951	0.47677	   
C8	C	-0.0669	1.3548	0.4344	   
C9	C	0.0667	1.252	0.46938	   
C10	C	0.2432	1.2092	0.42806	   
C11	C	0.3735	1.1069	0.46269	   
c1	C	0.389	0.8704	0.65976	   
c2	C	0.3365	0.8091	0.72536	   
c3	C	0.3185	0.4684	0.81306	   
c4	C	0.2391	0.3841	0.74775	   
c5	C	0.5256	0.4279	0.7961	   
c6	C	0.3563	0.8042	0.90056	   
c7	C	0.3169	0.7199	0.98408	   
c8	C	0.318	1.0018	0.90823	   
c9	C	-0.006	0.7547	0.84252	   
c10	C	-0.0958	0.6619	0.9153	   
c11	C	-0.0831	0.9328	0.832	   
Sim	Si	0.7523	1.2908	0.17715	   
C1m	C	0.5534	1.0619	0.41997	   
C2m	C	0.6801	0.9546	0.45535	   
C3m	C	0.8593	0.9078	0.41392	   
C4m	C	0.9858	0.8069	0.44859	   
C5m	C	1.1682	0.7603	0.40648	   
C6m	C	1.2889	0.6626	0.44225	   
C7m	C	1.2372	0.6049	0.52323	   
C8m	C	1.0669	0.6452	0.5656	   
C9m	C	0.9333	0.748	0.53062	   
C10m	C	0.7568	0.7908	0.57194	   
C11m	C	0.6265	0.8931	0.53731	   
c1m	C	0.611	1.1296	0.34024	   
c2m	C	0.6635	1.1909	0.27464	   
c3m	C	0.6815	1.5316	0.18694	   
c4m	C	0.7609	1.6159	0.25225	   
c5m	C	0.4744	1.5721	0.2039	   
c6m	C	0.6437	1.1958	0.09944	   
c7m	C	0.6831	1.2801	0.01592	   
c8m	C	0.682	0.9982	0.09177	   
c9m	C	1.006	1.2453	0.15748	   
c10m	C	1.0958	1.3381	0.0847	   
c11m	C	1.0831	1.0672	0.168	 